Representative_Reconfigurable_Test_Networks/selected_reconfigurable_networks/reconfigurable_outlier_case_5.m
function mpc = reconfigurable_outlier_case_5

% function mpc = ../matpowerfiles/LV_fg20
mpc.version = '2';
mpc.baseMVA = 1;
mpc.bus = [
	345	3	0.0	0.0	0.0	0.0	26	1	0	0.23	1	1.1	0.9;
	346	1	0.0	0.0	0.0	0.0	26	1	0	0.23	1	1.1	0.9;
	347	1	0.0	0.0	0.0	0.0	26	1	0	0.23	1	1.1	0.9;
	348	1	0.0	0.0	0.0	0.0	26	1	0	0.23	1	1.1	0.9;
	349	1	0.0	0.0	0.0	0.0	26	1	0	0.23	1	1.1	0.9;
	350	1	0.0	0.0	0.0	0.0	26	1	0	0.23	1	1.1	0.9;
	351	1	0.0	0.0	0.0	0.0	26	1	0	0.23	1	1.1	0.9;
	352	1	0.0	0.0	0.0	0.0	26	1	0	0.23	1	1.1	0.9;
	353	1	0.0	0.0	0.0	0.0	26	1	0	0.23	1	1.1	0.9;
	354	1	0.000177480197783	1.8465156768e-05	0.0	0.0	26	1	0	0.23	1	1.1	0.9;
	355	1	0.0	0.0	0.0	0.0	26	1	0	0.23	1	1.1	0.9;
	356	1	0.0	0.0	0.0	0.0	26	1	0	0.23	1	1.1	0.9;
	357	1	0.001100904599586	8.854072366e-05	0.0	0.0	26	1	0	0.23	1	1.1	0.9;
	358	1	0.0	0.0	0.0	0.0	26	1	0	0.23	1	1.1	0.9;
	359	1	0.000224515902536	2.7333199137e-05	0.0	0.0	26	1	0	0.23	1	1.1	0.9;
	360	1	0.0	0.0	0.0	0.0	26	1	0	0.23	1	1.1	0.9;
	361	1	0.0	0.0	0.0	0.0	26	1	0	0.23	1	1.1	0.9;
	362	1	0.0	0.0	0.0	0.0	26	1	0	0.23	1	1.1	0.9;
	363	1	0.000282708000908	1.6459296236e-05	0.0	0.0	26	1	0	0.23	1	1.1	0.9;
	364	1	0.0	0.0	0.0	0.0	26	1	0	0.23	1	1.1	0.9;
	365	1	0.000519056670933	3.9746030553e-05	0.0	0.0	26	1	0	0.23	1	1.1	0.9;
	366	1	0.0	0.0	0.0	0.0	26	1	0	0.23	1	1.1	0.9;
	367	1	0.000725633878491	4.9335958112e-05	0.0	0.0	26	1	0	0.23	1	1.1	0.9;
	368	1	0.0	0.0	0.0	0.0	26	1	0	0.23	1	1.1	0.9;
	369	1	0.0	0.0	0.0	0.0	26	1	0	0.23	1	1.1	0.9;
	370	1	0.0	0.0	0.0	0.0	26	1	0	0.23	1	1.1	0.9;
	371	1	0.0	0.0	0.0	0.0	26	1	0	0.23	1	1.1	0.9;
	372	1	0.0	0.0	0.0	0.0	26	1	0	0.23	1	1.1	0.9;
	373	1	0.000240323987976	2.8556124024e-05	0.0	0.0	26	1	0	0.23	1	1.1	0.9;
	374	1	0.0	0.0	0.0	0.0	26	1	0	0.23	1	1.1	0.9;
	375	1	0.0	0.0	0.0	0.0	26	1	0	0.23	1	1.1	0.9;
	376	1	0.0	0.0	0.0	0.0	26	1	0	0.23	1	1.1	0.9;
	377	1	0.0	0.0	0.0	0.0	26	1	0	0.23	1	1.1	0.9;
	378	1	0.0	0.0	0.0	0.0	26	1	0	0.23	1	1.1	0.9;
	379	1	0.0	0.0	0.0	0.0	26	1	0	0.23	1	1.1	0.9;
	380	1	0.0	0.0	0.0	0.0	26	1	0	0.23	1	1.1	0.9;
	381	1	0.0	0.0	0.0	0.0	26	1	0	0.23	1	1.1	0.9;
	382	1	0.0	0.0	0.0	0.0	26	1	0	0.23	1	1.1	0.9;
	383	1	0.002387762749382	0.000217155086262	0.0	0.0	26	1	0	0.23	1	1.1	0.9;
	384	1	0.0	0.0	0.0	0.0	26	1	0	0.23	1	1.1	0.9;
	385	1	0.0	0.0	0.0	0.0	26	1	0	0.23	1	1.1	0.9;
	386	1	0.0	0.0	0.0	0.0	26	1	0	0.23	1	1.1	0.9;
	387	1	0.0	0.0	0.0	0.0	26	1	0	0.23	1	1.1	0.9;
	388	1	0.0	0.0	0.0	0.0	26	1	0	0.23	1	1.1	0.9;
	389	1	0.000749850474309	7.0351326032e-05	0.0	0.0	26	1	0	0.23	1	1.1	0.9;
	390	1	0.0	0.0	0.0	0.0	26	1	0	0.23	1	1.1	0.9;
	391	1	0.006078385446813	0.0005664087894989998	0.0	0.0	26	1	0	0.23	1	1.1	0.9;
	392	1	0.0	0.0	0.0	0.0	26	1	0	0.23	1	1.1	0.9;
	393	1	0.001906130652441	0.000213419665287	0.0	0.0	26	1	0	0.23	1	1.1	0.9;
	394	1	0.0	0.0	0.0	0.0	26	1	0	0.23	1	1.1	0.9;
	395	1	0.0	0.0	0.0	0.0	26	1	0	0.23	1	1.1	0.9;
	396	1	0.0	0.0	0.0	0.0	26	1	0	0.23	1	1.1	0.9;
	397	1	0.0	0.0	0.0	0.0	26	1	0	0.23	1	1.1	0.9;
	398	1	0.0	0.0	0.0	0.0	26	1	0	0.23	1	1.1	0.9;
	399	1	0.0	0.0	0.0	0.0	26	1	0	0.23	1	1.1	0.9;
	400	1	0.0	0.0	0.0	0.0	26	1	0	0.23	1	1.1	0.9;
	401	1	0.0	0.0	0.0	0.0	26	1	0	0.23	1	1.1	0.9;
	402	1	0.0	0.0	0.0	0.0	26	1	0	0.23	1	1.1	0.9;
	403	1	0.0005057258260810001	4.721289161400001e-05	0.0	0.0	26	1	0	0.23	1	1.1	0.9;
	404	1	0.0	0.0	0.0	0.0	26	1	0	0.23	1	1.1	0.9;
	405	1	0.0	0.0	0.0	0.0	26	1	0	0.23	1	1.1	0.9;
	406	1	0.000799417631583	9.0665948423e-05	0.0	0.0	26	1	0	0.23	1	1.1	0.9;
	407	1	0.0	0.0	0.0	0.0	26	1	0	0.23	1	1.1	0.9;
	408	1	0.000230600400269	2.4468845183e-05	0.0	0.0	26	1	0	0.23	1	1.1	0.9;
	409	1	0.0	0.0	0.0	0.0	26	1	0	0.23	1	1.1	0.9;
	410	1	0.000453152983317	4.557021846199999e-05	0.0	0.0	26	1	0	0.23	1	1.1	0.9;
	411	1	0.0	0.0	0.0	0.0	26	1	0	0.23	1	1.1	0.9;
	412	1	0.0	0.0	0.0	0.0	26	1	0	0.23	1	1.1	0.9;
	413	1	0.0	0.0	0.0	0.0	26	1	0	0.23	1	1.1	0.9;
	414	1	0.0	0.0	0.0	0.0	26	1	0	0.23	1	1.1	0.9;
	415	1	0.0	0.0	0.0	0.0	26	1	0	0.23	1	1.1	0.9;
	416	1	0.0	0.0	0.0	0.0	26	1	0	0.23	1	1.1	0.9;
	417	1	0.0	0.0	0.0	0.0	26	1	0	0.23	1	1.1	0.9;
	418	1	0.0	0.0	0.0	0.0	26	1	0	0.23	1	1.1	0.9;
	419	1	0.000283710028725	2.7219862037e-05	0.0	0.0	26	1	0	0.23	1	1.1	0.9;
	420	1	0.0	0.0	0.0	0.0	26	1	0	0.23	1	1.1	0.9;
	421	1	0.000706100260612	7.0156102167e-05	0.0	0.0	26	1	0	0.23	1	1.1	0.9;
	422	1	0.0	0.0	0.0	0.0	26	1	0	0.23	1	1.1	0.9;
	423	1	0.0	0.0	0.0	0.0	26	1	0	0.23	1	1.1	0.9;
	424	1	0.0	0.0	0.0	0.0	26	1	0	0.23	1	1.1	0.9;
	425	1	0.0	0.0	0.0	0.0	26	1	0	0.23	1	1.1	0.9;
	426	1	0.0	0.0	0.0	0.0	26	1	0	0.23	1	1.1	0.9;
	427	1	0.000239179925603	2.0852605655e-05	0.0	0.0	26	1	0	0.23	1	1.1	0.9;
	428	1	0.0	0.0	0.0	0.0	26	1	0	0.23	1	1.1	0.9;
	429	1	0.0	0.0	0.0	0.0	26	1	0	0.23	1	1.1	0.9;
	430	1	0.0	0.0	0.0	0.0	26	1	0	0.23	1	1.1	0.9;
	431	1	0.0	0.0	0.0	0.0	26	1	0	0.23	1	1.1	0.9;
	432	1	0.0	0.0	0.0	0.0	26	1	0	0.23	1	1.1	0.9;
	433	1	0.0	0.0	0.0	0.0	26	1	0	0.23	1	1.1	0.9;
	434	1	0.0	0.0	0.0	0.0	26	1	0	0.23	1	1.1	0.9;
	435	1	0.000205927448828	1.9880146135e-05	0.0	0.0	26	1	0	0.23	1	1.1	0.9;
	436	1	0.0	0.0	0.0	0.0	26	1	0	0.23	1	1.1	0.9;
	437	1	0.0	0.0	0.0	0.0	26	1	0	0.23	1	1.1	0.9;
	438	1	0.000274630801217	2.1229500413e-05	0.0	0.0	26	1	0	0.23	1	1.1	0.9;
	439	1	0.0	0.0	0.0	0.0	26	1	0	0.23	1	1.1	0.9;
	440	1	0.0	0.0	0.0	0.0	26	1	0	0.23	1	1.1	0.9;
	441	1	0.00013215717116	1.6697123886e-05	0.0	0.0	26	1	0	0.23	1	1.1	0.9;
	442	1	0.0	0.0	0.0	0.0	26	1	0	0.23	1	1.1	0.9;
	443	1	0.001121614841633	0.000119563297079	0.0	0.0	26	1	0	0.23	1	1.1	0.9;
	444	1	0.0	0.0	0.0	0.0	26	1	0	0.23	1	1.1	0.9;
	445	1	0.00043159183182	4.9488495023e-05	0.0	0.0	26	1	0	0.23	1	1.1	0.9;
	446	1	0.0	0.0	0.0	0.0	26	1	0	0.23	1	1.1	0.9;
	447	1	0.0	0.0	0.0	0.0	26	1	0	0.23	1	1.1	0.9;
	448	1	0.0	0.0	0.0	0.0	26	1	0	0.23	1	1.1	0.9;
	449	1	0.0	0.0	0.0	0.0	26	1	0	0.23	1	1.1	0.9;
	450	1	0.0	0.0	0.0	0.0	26	1	0	0.23	1	1.1	0.9;
	451	1	0.0	0.0	0.0	0.0	26	1	0	0.23	1	1.1	0.9;
	452	1	0.0	0.0	0.0	0.0	26	1	0	0.23	1	1.1	0.9;
	453	1	0.0	0.0	0.0	0.0	26	1	0	0.23	1	1.1	0.9;
	454	1	0.0	0.0	0.0	0.0	26	1	0	0.23	1	1.1	0.9;
	455	1	0.0	0.0	0.0	0.0	26	1	0	0.23	1	1.1	0.9;
	456	1	0.0	0.0	0.0	0.0	26	1	0	0.23	1	1.1	0.9;
	457	1	0.000903197712579	8.5803605136e-05	0.0	0.0	26	1	0	0.23	1	1.1	0.9;
	458	1	0.0	0.0	0.0	0.0	26	1	0	0.23	1	1.1	0.9;
	459	1	0.000255660998224	2.7131304697e-05	0.0	0.0	26	1	0	0.23	1	1.1	0.9;
	460	1	0.0	0.0	0.0	0.0	26	1	0	0.23	1	1.1	0.9;
	461	1	0.0	0.0	0.0	0.0	26	1	0	0.23	1	1.1	0.9;
	462	1	0.0	0.0	0.0	0.0	26	1	0	0.23	1	1.1	0.9;
	463	1	0.0	0.0	0.0	0.0	26	1	0	0.23	1	1.1	0.9;
	464	1	0.0	0.0	0.0	0.0	26	1	0	0.23	1	1.1	0.9;
	465	1	0.0	0.0	0.0	0.0	26	1	0	0.23	1	1.1	0.9;
	466	1	0.0	0.0	0.0	0.0	26	1	0	0.23	1	1.1	0.9;
	467	1	0.00167958719426	0.000149425358144	0.0	0.0	26	1	0	0.23	1	1.1	0.9;
	468	1	0.0	0.0	0.0	0.0	26	1	0	0.23	1	1.1	0.9;
	469	1	0.000473788009973	4.2647899171e-05	0.0	0.0	26	1	0	0.23	1	1.1	0.9;
	470	1	0.0	0.0	0.0	0.0	26	1	0	0.23	1	1.1	0.9;
	471	1	0.001432504021857	0.000186103438062	0.0	0.0	26	1	0	0.23	1	1.1	0.9;
	472	1	0.0	0.0	0.0	0.0	26	1	0	0.23	1	1.1	0.9;
	473	1	0.000434319606871	5.7840807093e-05	0.0	0.0	26	1	0	0.23	1	1.1	0.9;
	474	1	0.0	0.0	0.0	0.0	26	1	0	0.23	1	1.1	0.9;
	475	1	0.0	0.0	0.0	0.0	26	1	0	0.23	1	1.1	0.9;
	540	3	0.0	0.0	0.0	0.0	29	1	0	0.23	1	1.1	0.9;
	541	1	0.0	0.0	0.0	0.0	29	1	0	0.23	1	1.1	0.9;
	542	1	0.0	0.0	0.0	0.0	29	1	0	0.23	1	1.1	0.9;
	543	1	0.0	0.0	0.0	0.0	29	1	0	0.23	1	1.1	0.9;
	544	1	0.0	0.0	0.0	0.0	29	1	0	0.23	1	1.1	0.9;
	545	1	0.000921721991364	6.7358687056e-05	0.0	0.0	29	1	0	0.23	1	1.1	0.9;
	546	1	0.0	0.0	0.0	0.0	29	1	0	0.23	1	1.1	0.9;
	547	1	0.0	0.0	0.0	0.0	29	1	0	0.23	1	1.1	0.9;
	548	1	0.0	0.0	0.0	0.0	29	1	0	0.23	1	1.1	0.9;
	549	1	0.0	0.0	0.0	0.0	29	1	0	0.23	1	1.1	0.9;
	550	1	0.0	0.0	0.0	0.0	29	1	0	0.23	1	1.1	0.9;
	551	1	0.0	0.0	0.0	0.0	29	1	0	0.23	1	1.1	0.9;
	552	1	0.0	0.0	0.0	0.0	29	1	0	0.23	1	1.1	0.9;
	553	1	0.0	0.0	0.0	0.0	29	1	0	0.23	1	1.1	0.9;
	554	1	0.001488139229355	0.000146536544694	0.0	0.0	29	1	0	0.23	1	1.1	0.9;
	555	1	0.0	0.0	0.0	0.0	29	1	0	0.23	1	1.1	0.9;
	556	1	0.001760742533418	0.000166125473147	0.0	0.0	29	1	0	0.23	1	1.1	0.9;
	557	1	0.0	0.0	0.0	0.0	29	1	0	0.23	1	1.1	0.9;
	558	1	0.0006710810494590001	7.5684478507e-05	0.0	0.0	29	1	0	0.23	1	1.1	0.9;
	559	1	0.0	0.0	0.0	0.0	29	1	0	0.23	1	1.1	0.9;
	560	1	0.003306023953772	0.000357667438886	0.0	0.0	29	1	0	0.23	1	1.1	0.9;
	561	1	0.0	0.0	0.0	0.0	29	1	0	0.23	1	1.1	0.9;
	562	1	0.0	0.0	0.0	0.0	29	1	0	0.23	1	1.1	0.9;
	563	1	0.000682995441602	7.4186405138e-05	0.0	0.0	29	1	0	0.23	1	1.1	0.9;
	564	1	0.0	0.0	0.0	0.0	29	1	0	0.23	1	1.1	0.9;
	565	1	0.0	0.0	0.0	0.0	29	1	0	0.23	1	1.1	0.9;
	566	1	0.001317541572993	0.000123944201818	0.0	0.0	29	1	0	0.23	1	1.1	0.9;
	567	1	0.0	0.0	0.0	0.0	29	1	0	0.23	1	1.1	0.9;
	568	1	0.0	0.0	0.0	0.0	29	1	0	0.23	1	1.1	0.9;
	569	1	0.0	0.0	0.0	0.0	29	1	0	0.23	1	1.1	0.9;
	570	1	0.0	0.0	0.0	0.0	29	1	0	0.23	1	1.1	0.9;
	571	1	0.0	0.0	0.0	0.0	29	1	0	0.23	1	1.1	0.9;
	572	1	0.0	0.0	0.0	0.0	29	1	0	0.23	1	1.1	0.9;
	573	1	0.0	0.0	0.0	0.0	29	1	0	0.23	1	1.1	0.9;
	574	1	0.0	0.0	0.0	0.0	29	1	0	0.23	1	1.1	0.9;
	575	1	0.0	0.0	0.0	0.0	29	1	0	0.23	1	1.1	0.9;
	576	1	0.0	0.0	0.0	0.0	29	1	0	0.23	1	1.1	0.9;
	577	1	0.000828388655287	0.000114607672788	0.0	0.0	29	1	0	0.23	1	1.1	0.9;
	578	1	0.0	0.0	0.0	0.0	29	1	0	0.23	1	1.1	0.9;
	579	1	0.0	0.0	0.0	0.0	29	1	0	0.23	1	1.1	0.9;
	580	1	0.0	0.0	0.0	0.0	29	1	0	0.23	1	1.1	0.9;
	581	1	0.0	0.0	0.0	0.0	29	1	0	0.23	1	1.1	0.9;
	582	1	0.0	0.0	0.0	0.0	29	1	0	0.23	1	1.1	0.9;
	583	1	0.0	0.0	0.0	0.0	29	1	0	0.23	1	1.1	0.9;
	584	1	0.001765348651316	0.00019513140638	0.0	0.0	29	1	0	0.23	1	1.1	0.9;
	585	1	0.0	0.0	0.0	0.0	29	1	0	0.23	1	1.1	0.9;
	586	1	0.001438528510594	0.000128830398855	0.0	0.0	29	1	0	0.23	1	1.1	0.9;
	587	1	0.0	0.0	0.0	0.0	29	1	0	0.23	1	1.1	0.9;
	588	1	0.0	0.0	0.0	0.0	29	1	0	0.23	1	1.1	0.9;
	589	1	0.000699650918801	8.7984623301e-05	0.0	0.0	29	1	0	0.23	1	1.1	0.9;
	590	1	0.0	0.0	0.0	0.0	29	1	0	0.23	1	1.1	0.9;
	591	1	0.0	0.0	0.0	0.0	29	1	0	0.23	1	1.1	0.9;
	592	1	0.0	0.0	0.0	0.0	29	1	0	0.23	1	1.1	0.9;
	593	1	0.0	0.0	0.0	0.0	29	1	0	0.23	1	1.1	0.9;
	594	1	0.0	0.0	0.0	0.0	29	1	0	0.23	1	1.1	0.9;
	595	1	0.0	0.0	0.0	0.0	29	1	0	0.23	1	1.1	0.9;
	596	1	0.0	0.0	0.0	0.0	29	1	0	0.23	1	1.1	0.9;
	597	1	0.0	0.0	0.0	0.0	29	1	0	0.23	1	1.1	0.9;
	598	1	0.0	0.0	0.0	0.0	29	1	0	0.23	1	1.1	0.9;
	599	1	0.0	0.0	0.0	0.0	29	1	0	0.23	1	1.1	0.9;
	600	1	0.002818647073295	0.000327312278406	0.0	0.0	29	1	0	0.23	1	1.1	0.9;
	601	1	0.0	0.0	0.0	0.0	29	1	0	0.23	1	1.1	0.9;
	602	1	0.0	0.0	0.0	0.0	29	1	0	0.23	1	1.1	0.9;
	603	1	0.002173964047457	0.000236720194212	0.0	0.0	29	1	0	0.23	1	1.1	0.9;
	604	1	0.0	0.0	0.0	0.0	29	1	0	0.23	1	1.1	0.9;
	605	1	0.000376881545057	4.9964032194e-05	0.0	0.0	29	1	0	0.23	1	1.1	0.9;
	606	1	0.0	0.0	0.0	0.0	29	1	0	0.23	1	1.1	0.9;
	607	1	0.0	0.0	0.0	0.0	29	1	0	0.23	1	1.1	0.9;
	608	1	0.0	0.0	0.0	0.0	29	1	0	0.23	1	1.1	0.9;
	609	1	0.001425393212111	0.000118610865116	0.0	0.0	29	1	0	0.23	1	1.1	0.9;
	610	1	0.0	0.0	0.0	0.0	29	1	0	0.23	1	1.1	0.9;
	611	1	0.000165775931791	2.5730325268e-05	0.0	0.0	29	1	0	0.23	1	1.1	0.9;
	2655	3	0.0	0.0	0.0	0.0	173	1	0	0.23	1	1.1	0.9;
	3162	3	0.0	0.0	0.0	0.0	212	1	0	0.23	1	1.1	0.9;
	3163	1	0.0	0.0	0.0	0.0	212	1	0	0.23	1	1.1	0.9;
	3164	1	0.0	0.0	0.0	0.0	212	1	0	0.23	1	1.1	0.9;
	3165	1	0.000343633130795	4.192457579700001e-05	0.0	0.0	212	1	0	0.23	1	1.1	0.9;
	3166	1	0.0	0.0	0.0	0.0	212	1	0	0.23	1	1.1	0.9;
	3167	1	0.0	0.0	0.0	0.0	212	1	0	0.23	1	1.1	0.9;
	3168	1	0.000271433795408	1.9765585907e-05	0.0	0.0	212	1	0	0.23	1	1.1	0.9;
	3169	1	0.0	0.0	0.0	0.0	212	1	0	0.23	1	1.1	0.9;
	3170	1	0.00285888535989	0.000292611037014	0.0	0.0	212	1	0	0.23	1	1.1	0.9;
	3171	1	0.0	0.0	0.0	0.0	212	1	0	0.23	1	1.1	0.9;
	3172	1	0.000241998143375	2.6095501982e-05	0.0	0.0	212	1	0	0.23	1	1.1	0.9;
	3173	1	0.0	0.0	0.0	0.0	212	1	0	0.23	1	1.1	0.9;
	3174	1	0.000246045164123	2.6955342883e-05	0.0	0.0	212	1	0	0.23	1	1.1	0.9;
	3175	1	0.0	0.0	0.0	0.0	212	1	0	0.23	1	1.1	0.9;
	3176	1	0.001125891403987	0.000157237913681	0.0	0.0	212	1	0	0.23	1	1.1	0.9;
	3177	1	0.0	0.0	0.0	0.0	212	1	0	0.23	1	1.1	0.9;
	3178	1	0.0	0.0	0.0	0.0	212	1	0	0.23	1	1.1	0.9;
	3179	1	0.0	0.0	0.0	0.0	212	1	0	0.23	1	1.1	0.9;
	3180	1	0.0	0.0	0.0	0.0	212	1	0	0.23	1	1.1	0.9;
	3181	1	0.0	0.0	0.0	0.0	212	1	0	0.23	1	1.1	0.9;
	3182	1	0.0	0.0	0.0	0.0	212	1	0	0.23	1	1.1	0.9;
	3183	1	0.000267467417324	2.8517981921e-05	0.0	0.0	212	1	0	0.23	1	1.1	0.9;
	3184	1	0.0	0.0	0.0	0.0	212	1	0	0.23	1	1.1	0.9;
	3185	1	0.000208731520725	2.4734388357e-05	0.0	0.0	212	1	0	0.23	1	1.1	0.9;
	3186	1	0.0	0.0	0.0	0.0	212	1	0	0.23	1	1.1	0.9;
	3187	1	0.0	0.0	0.0	0.0	212	1	0	0.23	1	1.1	0.9;
	3188	1	0.0	0.0	0.0	0.0	212	1	0	0.23	1	1.1	0.9;
	3189	1	0.000296989102624	1.616971367e-05	0.0	0.0	212	1	0	0.23	1	1.1	0.9;
	3190	1	0.0	0.0	0.0	0.0	212	1	0	0.23	1	1.1	0.9;
	3191	1	0.0	0.0	0.0	0.0	212	1	0	0.23	1	1.1	0.9;
	3192	1	0.00018659748166	2.3057486876e-05	0.0	0.0	212	1	0	0.23	1	1.1	0.9;
	3193	1	0.0	0.0	0.0	0.0	212	1	0	0.23	1	1.1	0.9;
	3194	1	0.00021517769967	3.207976214e-05	0.0	0.0	212	1	0	0.23	1	1.1	0.9;
	3195	1	0.0	0.0	0.0	0.0	212	1	0	0.23	1	1.1	0.9;
	3196	1	0.0	0.0	0.0	0.0	212	1	0	0.23	1	1.1	0.9;
	3197	1	0.00075142740967	9.8571834485e-05	0.0	0.0	212	1	0	0.23	1	1.1	0.9;
	3198	1	0.0	0.0	0.0	0.0	212	1	0	0.23	1	1.1	0.9;
	3199	1	0.000391026058678	4.592213005e-05	0.0	0.0	212	1	0	0.23	1	1.1	0.9;
	3200	1	0.0	0.0	0.0	0.0	212	1	0	0.23	1	1.1	0.9;
	3201	1	0.0	0.0	0.0	0.0	212	1	0	0.23	1	1.1	0.9;
	3202	1	0.000406717751573	5.3445378649e-05	0.0	0.0	212	1	0	0.23	1	1.1	0.9;
	3203	1	0.0	0.0	0.0	0.0	212	1	0	0.23	1	1.1	0.9;
	3204	1	0.000203447707852	2.2812074679e-05	0.0	0.0	212	1	0	0.23	1	1.1	0.9;
	3205	1	0.0	0.0	0.0	0.0	212	1	0	0.23	1	1.1	0.9;
	3206	1	0.00019829666494	2.0271099304e-05	0.0	0.0	212	1	0	0.23	1	1.1	0.9;
	3207	1	0.0	0.0	0.0	0.0	212	1	0	0.23	1	1.1	0.9;
	3208	1	0.000333272404616	2.3611265609e-05	0.0	0.0	212	1	0	0.23	1	1.1	0.9;
	3209	1	0.0	0.0	0.0	0.0	212	1	0	0.23	1	1.1	0.9;
	3210	1	0.000186993308439	2.2882733191e-05	0.0	0.0	212	1	0	0.23	1	1.1	0.9;
	3211	1	0.0	0.0	0.0	0.0	212	1	0	0.23	1	1.1	0.9;
	3212	1	0.0	0.0	0.0	0.0	212	1	0	0.23	1	1.1	0.9;
	3213	1	0.000239214154892	2.4645733454e-05	0.0	0.0	212	1	0	0.23	1	1.1	0.9;
	3214	1	0.0	0.0	0.0	0.0	212	1	0	0.23	1	1.1	0.9;
	3215	1	0.0	0.0	0.0	0.0	212	1	0	0.23	1	1.1	0.9;
	3216	1	0.0	0.0	0.0	0.0	212	1	0	0.23	1	1.1	0.9;
	3217	1	0.00025874999891	1.9526961084e-05	0.0	0.0	212	1	0	0.23	1	1.1	0.9;
	3218	1	0.0	0.0	0.0	0.0	212	1	0	0.23	1	1.1	0.9;
	3219	1	0.0	0.0	0.0	0.0	212	1	0	0.23	1	1.1	0.9;
	3220	1	0.0	0.0	0.0	0.0	212	1	0	0.23	1	1.1	0.9;
	3221	1	0.0	0.0	0.0	0.0	212	1	0	0.23	1	1.1	0.9;
	3222	1	0.000767123641102	8.4665646433e-05	0.0	0.0	212	1	0	0.23	1	1.1	0.9;
	3223	1	0.0	0.0	0.0	0.0	212	1	0	0.23	1	1.1	0.9;
	3224	1	0.00027207178373	2.0926084977e-05	0.0	0.0	212	1	0	0.23	1	1.1	0.9;
	3225	1	0.0	0.0	0.0	0.0	212	1	0	0.23	1	1.1	0.9;
	3226	1	0.001262749045682	0.000135367839997	0.0	0.0	212	1	0	0.23	1	1.1	0.9;
	3227	1	0.0	0.0	0.0	0.0	212	1	0	0.23	1	1.1	0.9;
	3228	1	0.001536730978134	0.00012050739251	0.0	0.0	212	1	0	0.23	1	1.1	0.9;
	3229	1	0.0	0.0	0.0	0.0	212	1	0	0.23	1	1.1	0.9;
	3230	1	0.000478401348252	6.403772319599999e-05	0.0	0.0	212	1	0	0.23	1	1.1	0.9;
	3231	1	0.0	0.0	0.0	0.0	212	1	0	0.23	1	1.1	0.9;
	3232	1	0.0	0.0	0.0	0.0	212	1	0	0.23	1	1.1	0.9;
	3233	1	0.0	0.0	0.0	0.0	212	1	0	0.23	1	1.1	0.9;
	3234	1	0.0	0.0	0.0	0.0	212	1	0	0.23	1	1.1	0.9;
	3235	1	0.0	0.0	0.0	0.0	212	1	0	0.23	1	1.1	0.9;
	3236	1	0.001090711586682	8.872559496900001e-05	0.0	0.0	212	1	0	0.23	1	1.1	0.9;
	3237	1	0.0	0.0	0.0	0.0	212	1	0	0.23	1	1.1	0.9;
	3238	1	0.0	0.0	0.0	0.0	212	1	0	0.23	1	1.1	0.9;
	3239	1	0.0	0.0	0.0	0.0	212	1	0	0.23	1	1.1	0.9;
	3240	1	0.0	0.0	0.0	0.0	212	1	0	0.23	1	1.1	0.9;
	3241	1	0.0	0.0	0.0	0.0	212	1	0	0.23	1	1.1	0.9;
	3242	1	0.0	0.0	0.0	0.0	212	1	0	0.23	1	1.1	0.9;
	3243	1	0.001426185804693	0.000173686510364	0.0	0.0	212	1	0	0.23	1	1.1	0.9;
	3244	1	0.0	0.0	0.0	0.0	212	1	0	0.23	1	1.1	0.9;
	3245	1	0.001865610988793	0.000171285354177	0.0	0.0	212	1	0	0.23	1	1.1	0.9;
	3246	1	0.0	0.0	0.0	0.0	212	1	0	0.23	1	1.1	0.9;
	3247	1	0.0	0.0	0.0	0.0	212	1	0	0.23	1	1.1	0.9;
	3248	1	0.0009562345774139999	0.000100576744321	0.0	0.0	212	1	0	0.23	1	1.1	0.9;
	3249	1	0.0	0.0	0.0	0.0	212	1	0	0.23	1	1.1	0.9;
	3250	1	0.000275321254233	2.2105773528e-05	0.0	0.0	212	1	0	0.23	1	1.1	0.9;
	3251	1	0.0	0.0	0.0	0.0	212	1	0	0.23	1	1.1	0.9;
	3252	1	0.001032699212486	0.000198293137577	0.0	0.0	212	1	0	0.23	1	1.1	0.9;
	3253	1	0.0	0.0	0.0	0.0	212	1	0	0.23	1	1.1	0.9;
	3254	1	0.0	0.0	0.0	0.0	212	1	0	0.23	1	1.1	0.9;
	3255	1	0.0	0.0	0.0	0.0	212	1	0	0.23	1	1.1	0.9;
	3256	1	0.000151612053443	1.9709738538e-05	0.0	0.0	212	1	0	0.23	1	1.1	0.9;
	3257	1	0.0	0.0	0.0	0.0	212	1	0	0.23	1	1.1	0.9;
	3258	1	0.000192086905555	2.1618266255e-05	0.0	0.0	212	1	0	0.23	1	1.1	0.9;
	3259	1	0.0	0.0	0.0	0.0	212	1	0	0.23	1	1.1	0.9;
	3260	1	0.0	0.0	0.0	0.0	212	1	0	0.23	1	1.1	0.9;
	3261	1	0.0	0.0	0.0	0.0	212	1	0	0.23	1	1.1	0.9;
	3262	1	0.0	0.0	0.0	0.0	212	1	0	0.23	1	1.1	0.9;
	3263	1	0.0	0.0	0.0	0.0	212	1	0	0.23	1	1.1	0.9;
	3264	1	0.000239048435241	2.3502895807e-05	0.0	0.0	212	1	0	0.23	1	1.1	0.9;
	3705	3	0.0	0.0	0.0	0.0	249	1	0	0.23	1	1.1	0.9;
	3706	1	0.0	0.0	0.0	0.0	249	1	0	0.23	1	1.1	0.9;
	3707	1	0.0	0.0	0.0	0.0	249	1	0	0.23	1	1.1	0.9;
	3708	1	0.000254818459315	2.0953146033e-05	0.0	0.0	249	1	0	0.23	1	1.1	0.9;
	3709	1	0.0	0.0	0.0	0.0	249	1	0	0.23	1	1.1	0.9;
	3710	1	0.0	0.0	0.0	0.0	249	1	0	0.23	1	1.1	0.9;
	3711	1	0.0	0.0	0.0	0.0	249	1	0	0.23	1	1.1	0.9;
	3712	1	0.004845673773162	0.0004890349625	0.0	0.0	249	1	0	0.23	1	1.1	0.9;
	3713	1	0.0	0.0	0.0	0.0	249	1	0	0.23	1	1.1	0.9;
	3714	1	0.0	0.0	0.0	0.0	249	1	0	0.23	1	1.1	0.9;
	3715	1	0.0	0.0	0.0	0.0	249	1	0	0.23	1	1.1	0.9;
	3716	1	0.004634623544998999	0.000475100299363	0.0	0.0	249	1	0	0.23	1	1.1	0.9;
	3717	1	0.0	0.0	0.0	0.0	249	1	0	0.23	1	1.1	0.9;
	3718	1	0.0	0.0	0.0	0.0	249	1	0	0.23	1	1.1	0.9;
	3719	1	0.0	0.0	0.0	0.0	249	1	0	0.23	1	1.1	0.9;
	3720	1	0.0	0.0	0.0	0.0	249	1	0	0.23	1	1.1	0.9;
	3721	1	0.002859326233547	0.000236861948479	0.0	0.0	249	1	0	0.23	1	1.1	0.9;
	3722	1	0.0	0.0	0.0	0.0	249	1	0	0.23	1	1.1	0.9;
	3723	1	0.000858595185244	0.000103251584114	0.0	0.0	249	1	0	0.23	1	1.1	0.9;
	3724	1	0.0	0.0	0.0	0.0	249	1	0	0.23	1	1.1	0.9;
	3725	1	0.0	0.0	0.0	0.0	249	1	0	0.23	1	1.1	0.9;
	3726	1	0.001049111359453	0.000113911394525	0.0	0.0	249	1	0	0.23	1	1.1	0.9;
	3727	1	0.0	0.0	0.0	0.0	249	1	0	0.23	1	1.1	0.9;
	3728	1	0.003523937287133001	0.000330013401382	0.0	0.0	249	1	0	0.23	1	1.1	0.9;
	3729	1	0.0	0.0	0.0	0.0	249	1	0	0.23	1	1.1	0.9;
	3730	1	0.0	0.0	0.0	0.0	249	1	0	0.23	1	1.1	0.9;
	3731	1	0.0	0.0	0.0	0.0	249	1	0	0.23	1	1.1	0.9;
	3732	1	0.0	0.0	0.0	0.0	249	1	0	0.23	1	1.1	0.9;
	3733	1	0.0	0.0	0.0	0.0	249	1	0	0.23	1	1.1	0.9;
	3734	1	0.0	0.0	0.0	0.0	249	1	0	0.23	1	1.1	0.9;
	3735	1	0.0	0.0	0.0	0.0	249	1	0	0.23	1	1.1	0.9;
	3736	1	0.000210948813124	2.6525234712e-05	0.0	0.0	249	1	0	0.23	1	1.1	0.9;
	3737	1	0.0	0.0	0.0	0.0	249	1	0	0.23	1	1.1	0.9;
	3738	1	0.003391333767674	0.000322830607597	0.0	0.0	249	1	0	0.23	1	1.1	0.9;
	3739	1	0.0	0.0	0.0	0.0	249	1	0	0.23	1	1.1	0.9;
	3740	1	0.0	0.0	0.0	0.0	249	1	0	0.23	1	1.1	0.9;
	3741	1	0.0	0.0	0.0	0.0	249	1	0	0.23	1	1.1	0.9;
	3742	1	0.002509064476494	0.000274299241473	0.0	0.0	249	1	0	0.23	1	1.1	0.9;
	3743	1	0.0	0.0	0.0	0.0	249	1	0	0.23	1	1.1	0.9;
	3744	1	0.004058070353077	0.000344668531649	0.0	0.0	249	1	0	0.23	1	1.1	0.9;
	3745	1	0.0	0.0	0.0	0.0	249	1	0	0.23	1	1.1	0.9;
	3746	1	0.000251057148633	1.8980538331e-05	0.0	0.0	249	1	0	0.23	1	1.1	0.9;
	3747	1	0.0	0.0	0.0	0.0	249	1	0	0.23	1	1.1	0.9;
	3748	1	0.000625231846616	5.1674186946e-05	0.0	0.0	249	1	0	0.23	1	1.1	0.9;
	3749	1	0.0	0.0	0.0	0.0	249	1	0	0.23	1	1.1	0.9;
	3750	1	0.004722527148158	0.000506284408343	0.0	0.0	249	1	0	0.23	1	1.1	0.9;
	3751	1	0.0	0.0	0.0	0.0	249	1	0	0.23	1	1.1	0.9;
	3752	1	0.0	0.0	0.0	0.0	249	1	0	0.23	1	1.1	0.9;
	3753	1	0.00199621457242	0.000226621333528	0.0	0.0	249	1	0	0.23	1	1.1	0.9;
];

mpc.gen = [
	345	0.0	0.0	Inf	-Inf	1	1	1	Inf	-Inf;
	540	0.0	0.0	Inf	-Inf	1	1	1	Inf	-Inf;
	2655	0.0	0.0	Inf	-Inf	1	1	1	Inf	-Inf;
	3162	0.0	0.0	Inf	-Inf	1	1	1	Inf	-Inf;
	3705	0.0	0.0	Inf	-Inf	1	1	1	Inf	-Inf;
];

mpc.gencost = [
	2	0	0	2	1	0;
	2	0	0	2	1	0;
	2	0	0	2	1	0;
	2	0	0	2	1	0;
	2	0	0	2	1	0;
];

mpc.branch = [
	345	346	0.05954631379962192	0.021266540642722116	0	0	0	0	0	0	1	-89.9	89.9;
	346	347	0.061109073724007555	0.022495274102079396	0	0	0	0	0	0	1	-89.9	89.9;
	347	348	0.06377168336483932	0.023475425330812854	0	0	0	0	0	0	1	-89.9	89.9;
	348	349	0.07926719848771266	0.029179584120982986	0	0	0	0	0	0	1	-89.9	89.9;
	349	350	0.11785321361058601	0.04338374291115312	0	0	0	0	0	0	1	-89.9	89.9;
	350	351	0.078568809073724	0.028922495274102077	0	0	0	0	0	0	1	-89.9	89.9;
	351	352	0.030554536862003778	0.011247637051039698	0	0	0	0	0	0	1	-89.9	89.9;
	352	353	0.20264650283553876	0.014669187145557655	0	0	0	0	0	0	1	-89.9	89.9;
	353	354	0.00021739130434782607	2.835538752362949e-05	0	0	0	0	0	0	1	-89.9	89.9;
	352	355	0.08729867674858223	0.03213610586011342	0	0	0	0	0	0	1	-89.9	89.9;
	355	356	0.15198487712665407	0.011001890359168242	0	0	0	0	0	0	1	-89.9	89.9;
	356	357	0.00021739130434782607	2.835538752362949e-05	0	0	0	0	0	0	1	-89.9	89.9;
	355	358	0.15198487712665407	0.011001890359168242	0	0	0	0	0	0	1	-89.9	89.9;
	358	359	0.00021739130434782607	2.835538752362949e-05	0	0	0	0	0	0	1	-89.9	89.9;
	355	360	0.039284404536862	0.014461247637051039	0	0	0	0	0	0	1	-89.9	89.9;
	360	361	0.061109073724007555	0.022495274102079396	0	0	0	0	0	0	1	-89.9	89.9;
	361	362	0.20264650283553876	0.014669187145557655	0	0	0	0	0	0	1	-89.9	89.9;
	362	363	0.00021739130434782607	2.835538752362949e-05	0	0	0	0	0	0	1	-89.9	89.9;
	361	364	0.15198487712665407	0.011001890359168242	0	0	0	0	0	0	1	-89.9	89.9;
	364	365	0.00021739130434782607	2.835538752362949e-05	0	0	0	0	0	0	1	-89.9	89.9;
	361	366	0.24444234404536863	0.017694706994328922	0	0	0	0	0	0	1	-89.9	89.9;
	366	367	0.00021739130434782607	2.835538752362949e-05	0	0	0	0	0	0	1	-89.9	89.9;
	361	368	0.1266540642722117	0.009168241965973534	0	0	0	0	0	0	1	-89.9	89.9;
	368	369	0.00021739130434782607	2.835538752362949e-05	0	0	0	0	0	0	1	-89.9	89.9;
	361	370	0.04801427221172022	0.01767485822306238	0	0	0	0	0	0	1	-89.9	89.9;
	370	371	0.052379206049149335	0.019281663516068054	0	0	0	0	0	0	1	-89.9	89.9;
	371	372	0.1266540642722117	0.009168241965973534	0	0	0	0	0	0	1	-89.9	89.9;
	372	373	0.00021739130434782607	2.835538752362949e-05	0	0	0	0	0	0	1	-89.9	89.9;
	371	374	0.10039347826086956	0.03695652173913044	0	0	0	0	0	0	1	-89.9	89.9;
	374	375	0.1266540642722117	0.009168241965973534	0	0	0	0	0	0	1	-89.9	89.9;
	375	376	0.00021739130434782607	2.835538752362949e-05	0	0	0	0	0	0	1	-89.9	89.9;
	374	377	0.17731568998109642	0.012835538752362948	0	0	0	0	0	0	1	-89.9	89.9;
	377	378	0.00021739130434782607	2.835538752362949e-05	0	0	0	0	0	0	1	-89.9	89.9;
	370	379	0.17023241965973535	0.06266540642722117	0	0	0	0	0	0	1	-89.9	89.9;
	379	380	0.10132325141776938	0.007334593572778827	0	0	0	0	0	0	1	-89.9	89.9;
	380	381	0.00021739130434782607	2.835538752362949e-05	0	0	0	0	0	0	1	-89.9	89.9;
	379	382	0.06102442344045368	0.015141776937618145	0	0	0	0	0	0	1	-89.9	89.9;
	382	383	0.00021739130434782607	2.835538752362949e-05	0	0	0	0	0	0	1	-89.9	89.9;
	379	384	0.021824669187145557	0.008034026465028356	0	0	0	0	0	0	1	-89.9	89.9;
	384	385	0.030554536862003778	0.011247637051039698	0	0	0	0	0	0	1	-89.9	89.9;
	385	386	0.078568809073724	0.028922495274102077	0	0	0	0	0	0	1	-89.9	89.9;
	386	387	0.05674413988657845	0.020888468809073725	0	0	0	0	0	0	1	-89.9	89.9;
	387	388	0.013560982986767486	0.003364839319470699	0	0	0	0	0	0	1	-89.9	89.9;
	388	389	0.00021739130434782607	2.835538752362949e-05	0	0	0	0	0	0	1	-89.9	89.9;
	386	390	0.013560982986767486	0.003364839319470699	0	0	0	0	0	0	1	-89.9	89.9;
	390	391	0.00021739130434782607	2.835538752362949e-05	0	0	0	0	0	0	1	-89.9	89.9;
	384	392	0.013094801512287334	0.0048204158790170135	0	0	0	0	0	0	1	-89.9	89.9;
	392	393	0.00021739130434782607	2.835538752362949e-05	0	0	0	0	0	0	1	-89.9	89.9;
	379	394	0.078568809073724	0.028922495274102077	0	0	0	0	0	0	1	-89.9	89.9;
	394	395	0.10132325141776938	0.007334593572778827	0	0	0	0	0	0	1	-89.9	89.9;
	395	396	0.00021739130434782607	2.835538752362949e-05	0	0	0	0	0	0	1	-89.9	89.9;
	394	397	0.061109073724007555	0.022495274102079396	0	0	0	0	0	0	1	-89.9	89.9;
	397	398	0.22797731568998109	0.016502835538752363	0	0	0	0	0	0	1	-89.9	89.9;
	398	399	0.00021739130434782607	2.835538752362949e-05	0	0	0	0	0	0	1	-89.9	89.9;
	397	400	0.07599243856332703	0.005500945179584121	0	0	0	0	0	0	1	-89.9	89.9;
	400	401	0.00021739130434782607	2.835538752362949e-05	0	0	0	0	0	0	1	-89.9	89.9;
	397	402	0.07599243856332703	0.005500945179584121	0	0	0	0	0	0	1	-89.9	89.9;
	402	403	0.00021739130434782607	2.835538752362949e-05	0	0	0	0	0	0	1	-89.9	89.9;
	397	404	0.14840775047258978	0.05463137996219282	0	0	0	0	0	0	1	-89.9	89.9;
	370	405	0.20264650283553876	0.014669187145557655	0	0	0	0	0	0	1	-89.9	89.9;
	405	406	0.00021739130434782607	2.835538752362949e-05	0	0	0	0	0	0	1	-89.9	89.9;
	351	407	0.2533081285444234	0.01833648393194707	0	0	0	0	0	0	1	-89.9	89.9;
	407	408	0.00021739130434782607	2.835538752362949e-05	0	0	0	0	0	0	1	-89.9	89.9;
	407	409	0.024969754253308125	0.009512287334593571	0	0	0	0	0	0	1	-89.9	89.9;
	409	410	0.00021739130434782607	2.835538752362949e-05	0	0	0	0	0	0	1	-89.9	89.9;
	407	411	0.022746691871455577	0.00866540642722117	0	0	0	0	0	0	1	-89.9	89.9;
	407	412	0.03271077504725898	0.01246124763705104	0	0	0	0	0	0	1	-89.9	89.9;
	412	413	0.00021739130434782607	2.835538752362949e-05	0	0	0	0	0	0	1	-89.9	89.9;
	350	414	0.17731568998109642	0.012835538752362948	0	0	0	0	0	0	1	-89.9	89.9;
	414	415	0.00021739130434782607	2.835538752362949e-05	0	0	0	0	0	0	1	-89.9	89.9;
	350	416	0.17731568998109642	0.012835538752362948	0	0	0	0	0	0	1	-89.9	89.9;
	416	417	0.00021739130434782607	2.835538752362949e-05	0	0	0	0	0	0	1	-89.9	89.9;
	349	418	0.22797731568998109	0.016502835538752363	0	0	0	0	0	0	1	-89.9	89.9;
	418	419	0.00021739130434782607	2.835538752362949e-05	0	0	0	0	0	0	1	-89.9	89.9;
	418	420	0.01984877126654064	0.007561436672967864	0	0	0	0	0	0	1	-89.9	89.9;
	420	421	0.00021739130434782607	2.835538752362949e-05	0	0	0	0	0	0	1	-89.9	89.9;
	418	422	0.007939508506616257	0.0030245746691871457	0	0	0	0	0	0	1	-89.9	89.9;
	418	423	0.03572778827977315	0.013610586011342154	0	0	0	0	0	0	1	-89.9	89.9;
	423	424	0.015879017013232515	0.0060491493383742915	0	0	0	0	0	0	1	-89.9	89.9;
	424	425	0.00021739130434782607	2.835538752362949e-05	0	0	0	0	0	0	1	-89.9	89.9;
	418	426	0.03969754253308128	0.015122873345935728	0	0	0	0	0	0	1	-89.9	89.9;
	426	427	0.00021739130434782607	2.835538752362949e-05	0	0	0	0	0	0	1	-89.9	89.9;
	348	428	0.023265097353497164	0.008564272211720226	0	0	0	0	0	0	1	-89.9	89.9;
	428	429	0.025360265595463137	0.009335538752362949	0	0	0	0	0	0	1	-89.9	89.9;
	429	430	0.16996975425330813	0.012303780718336484	0	0	0	0	0	0	1	-89.9	89.9;
	430	431	0.00021739130434782607	2.835538752362949e-05	0	0	0	0	0	0	1	-89.9	89.9;
	430	432	0.025763705103969754	0.009814744801512287	0	0	0	0	0	0	1	-89.9	89.9;
	432	433	0.01984877126654064	0.007561436672967864	0	0	0	0	0	0	1	-89.9	89.9;
	433	434	0.015879017013232515	0.0060491493383742915	0	0	0	0	0	0	1	-89.9	89.9;
	434	435	0.00021739130434782607	2.835538752362949e-05	0	0	0	0	0	0	1	-89.9	89.9;
	430	436	0.02790737240075614	0.010631379962192817	0	0	0	0	0	0	1	-89.9	89.9;
	436	437	0.01984877126654064	0.007561436672967864	0	0	0	0	0	0	1	-89.9	89.9;
	437	438	0.00021739130434782607	2.835538752362949e-05	0	0	0	0	0	0	1	-89.9	89.9;
	430	439	0.032591682419659734	0.012415879017013232	0	0	0	0	0	0	1	-89.9	89.9;
	429	440	0.10005671077504727	0.007242911153119093	0	0	0	0	0	0	1	-89.9	89.9;
	440	441	0.00021739130434782607	2.835538752362949e-05	0	0	0	0	0	0	1	-89.9	89.9;
	428	442	0.1266540642722117	0.009168241965973534	0	0	0	0	0	0	1	-89.9	89.9;
	442	443	0.00021739130434782607	2.835538752362949e-05	0	0	0	0	0	0	1	-89.9	89.9;
	442	444	0.02683553875236295	0.010223062381852553	0	0	0	0	0	0	1	-89.9	89.9;
	444	445	0.00021739130434782607	2.835538752362949e-05	0	0	0	0	0	0	1	-89.9	89.9;
	348	446	0.0363598988657845	0.013384688090737241	0	0	0	0	0	0	1	-89.9	89.9;
	446	447	0.00021739130434782607	2.835538752362949e-05	0	0	0	0	0	0	1	-89.9	89.9;
	348	448	0.04834490434782609	0.011995652173913043	0	0	0	0	0	0	1	-89.9	89.9;
	448	449	0.00021739130434782607	2.835538752362949e-05	0	0	0	0	0	0	1	-89.9	89.9;
	346	450	0.061109073724007555	0.022495274102079396	0	0	0	0	0	0	1	-89.9	89.9;
	450	451	0.13967788279773155	0.05141776937618148	0	0	0	0	0	0	1	-89.9	89.9;
	451	452	0.061109073724007555	0.022495274102079396	0	0	0	0	0	0	1	-89.9	89.9;
	452	453	0.05674413988657845	0.020888468809073725	0	0	0	0	0	0	1	-89.9	89.9;
	453	454	0.0834138856332703	0.03070604914933837	0	0	0	0	0	0	1	-89.9	89.9;
	454	455	0.03596705482041588	0.013240075614366732	0	0	0	0	0	0	1	-89.9	89.9;
	455	456	0.27863894139886575	0.020170132325141775	0	0	0	0	0	0	1	-89.9	89.9;
	456	457	0.00021739130434782607	2.835538752362949e-05	0	0	0	0	0	0	1	-89.9	89.9;
	456	458	0.020206049149338375	0.007697542533081285	0	0	0	0	0	0	1	-89.9	89.9;
	458	459	0.00021739130434782607	2.835538752362949e-05	0	0	0	0	0	0	1	-89.9	89.9;
	455	460	0.10039347826086956	0.03695652173913044	0	0	0	0	0	0	1	-89.9	89.9;
	460	461	0.15198487712665407	0.011001890359168242	0	0	0	0	0	0	1	-89.9	89.9;
	461	462	0.00021739130434782607	2.835538752362949e-05	0	0	0	0	0	0	1	-89.9	89.9;
	461	463	0.04640642722117202	0.017678638941398865	0	0	0	0	0	0	1	-89.9	89.9;
	463	464	0.0555765595463138	0.02117202268431002	0	0	0	0	0	0	1	-89.9	89.9;
	464	465	0.00021739130434782607	2.835538752362949e-05	0	0	0	0	0	0	1	-89.9	89.9;
	454	466	0.12184120982986768	0.00881984877126654	0	0	0	0	0	0	1	-89.9	89.9;
	466	467	0.00021739130434782607	2.835538752362949e-05	0	0	0	0	0	0	1	-89.9	89.9;
	454	468	0.028410259357277885	0.007049338374291115	0	0	0	0	0	0	1	-89.9	89.9;
	468	469	0.00021739130434782607	2.835538752362949e-05	0	0	0	0	0	0	1	-89.9	89.9;
	453	470	0.10132325141776938	0.007334593572778827	0	0	0	0	0	0	1	-89.9	89.9;
	470	471	0.00021739130434782607	2.835538752362949e-05	0	0	0	0	0	0	1	-89.9	89.9;
	452	472	0.1266540642722117	0.009168241965973534	0	0	0	0	0	0	1	-89.9	89.9;
	472	473	0.00021739130434782607	2.835538752362949e-05	0	0	0	0	0	0	1	-89.9	89.9;
	451	474	0.10132325141776938	0.007334593572778827	0	0	0	0	0	0	1	-89.9	89.9;
	474	475	0.00021739130434782607	2.835538752362949e-05	0	0	0	0	0	0	1	-89.9	89.9;
	540	541	0.03969754253308128	0.014177693761814745	0	0	0	0	0	0	1	-89.9	89.9;
	541	542	0.07420387523629489	0.02731568998109641	0	0	0	0	0	0	1	-89.9	89.9;
	542	543	0.09166361058601134	0.033742911153119094	0	0	0	0	0	0	1	-89.9	89.9;
	543	544	0.004452232514177694	0.0016389413988657845	0	0	0	0	0	0	1	-89.9	89.9;
	544	545	0.00021739130434782607	2.835538752362949e-05	0	0	0	0	0	0	1	-89.9	89.9;
	544	546	0.0057180633270321355	0.002104914933837429	0	0	0	0	0	0	1	-89.9	89.9;
	546	547	0.017459735349716444	0.006427221172022685	0	0	0	0	0	0	1	-89.9	89.9;
	547	548	0.05674413988657845	0.020888468809073725	0	0	0	0	0	0	1	-89.9	89.9;
	548	549	0.00021739130434782607	2.835538752362949e-05	0	0	0	0	0	0	1	-89.9	89.9;
	548	550	0.06547400756143668	0.024102079395085067	0	0	0	0	0	0	1	-89.9	89.9;
	550	551	0.13094801512287335	0.048204158790170135	0	0	0	0	0	0	1	-89.9	89.9;
	551	552	0.00021739130434782607	2.835538752362949e-05	0	0	0	0	0	0	1	-89.9	89.9;
	551	553	0.017459735349716444	0.006427221172022685	0	0	0	0	0	0	1	-89.9	89.9;
	553	554	0.00021739130434782607	2.835538752362949e-05	0	0	0	0	0	0	1	-89.9	89.9;
	553	555	0.043649338374291115	0.01606805293005671	0	0	0	0	0	0	1	-89.9	89.9;
	555	556	0.00021739130434782607	2.835538752362949e-05	0	0	0	0	0	0	1	-89.9	89.9;
	555	557	0.08293374291115312	0.030529300567107752	0	0	0	0	0	0	1	-89.9	89.9;
	557	558	0.00021739130434782607	2.835538752362949e-05	0	0	0	0	0	0	1	-89.9	89.9;
	557	559	0.021824669187145557	0.008034026465028356	0	0	0	0	0	0	1	-89.9	89.9;
	559	560	0.00021739130434782607	2.835538752362949e-05	0	0	0	0	0	0	1	-89.9	89.9;
	559	561	0.0339155359168242	0.012484877126654064	0	0	0	0	0	0	1	-89.9	89.9;
	559	562	0.008729867674858222	0.0032136105860113423	0	0	0	0	0	0	1	-89.9	89.9;
	562	563	0.00021739130434782607	2.835538752362949e-05	0	0	0	0	0	0	1	-89.9	89.9;
	562	564	0.2869981096408317	0.02077523629489603	0	0	0	0	0	0	1	-89.9	89.9;
	562	565	0.06983894139886578	0.02570888468809074	0	0	0	0	0	0	1	-89.9	89.9;
	565	566	0.00021739130434782607	2.835538752362949e-05	0	0	0	0	0	0	1	-89.9	89.9;
	565	567	0.039284404536862	0.014461247637051039	0	0	0	0	0	0	1	-89.9	89.9;
	567	568	0.00021739130434782607	2.835538752362949e-05	0	0	0	0	0	0	1	-89.9	89.9;
	567	569	0.013094801512287334	0.0048204158790170135	0	0	0	0	0	0	1	-89.9	89.9;
	569	570	0.00021739130434782607	2.835538752362949e-05	0	0	0	0	0	0	1	-89.9	89.9;
	569	571	0.008729867674858222	0.0032136105860113423	0	0	0	0	0	0	1	-89.9	89.9;
	571	572	0.052379206049149335	0.019281663516068054	0	0	0	0	0	0	1	-89.9	89.9;
	572	573	0.00021739130434782607	2.835538752362949e-05	0	0	0	0	0	0	1	-89.9	89.9;
	572	574	0.013094801512287334	0.0048204158790170135	0	0	0	0	0	0	1	-89.9	89.9;
	571	575	0.09166361058601134	0.033742911153119094	0	0	0	0	0	0	1	-89.9	89.9;
	575	576	0.0277882797731569	0.00992438563327032	0	0	0	0	0	0	1	-89.9	89.9;
	576	577	0.00021739130434782607	2.835538752362949e-05	0	0	0	0	0	0	1	-89.9	89.9;
	575	578	0.008729867674858222	0.0032136105860113423	0	0	0	0	0	0	1	-89.9	89.9;
	575	579	0.030554536862003778	0.011247637051039698	0	0	0	0	0	0	1	-89.9	89.9;
	579	580	0.013094801512287334	0.0048204158790170135	0	0	0	0	0	0	1	-89.9	89.9;
	580	581	0.030554536862003778	0.011247637051039698	0	0	0	0	0	0	1	-89.9	89.9;
	571	582	0.06983894139886578	0.02570888468809074	0	0	0	0	0	0	1	-89.9	89.9;
	582	583	0.20264650283553876	0.014669187145557655	0	0	0	0	0	0	1	-89.9	89.9;
	583	584	0.00021739130434782607	2.835538752362949e-05	0	0	0	0	0	0	1	-89.9	89.9;
	582	585	0.021824669187145557	0.008034026465028356	0	0	0	0	0	0	1	-89.9	89.9;
	585	586	0.00021739130434782607	2.835538752362949e-05	0	0	0	0	0	0	1	-89.9	89.9;
	585	587	0.021824669187145557	0.008034026465028356	0	0	0	0	0	0	1	-89.9	89.9;
	550	588	0.9304347826086956	0.03913043478260869	0	0	0	0	0	0	1	-89.9	89.9;
	588	589	0.00021739130434782607	2.835538752362949e-05	0	0	0	0	0	0	1	-89.9	89.9;
	550	590	0.22797731568998109	0.016502835538752363	0	0	0	0	0	0	1	-89.9	89.9;
	590	591	0.03572778827977315	0.012759924385633269	0	0	0	0	0	0	1	-89.9	89.9;
	591	592	0.01984877126654064	0.007088846880907372	0	0	0	0	0	0	1	-89.9	89.9;
	592	593	0.00021739130434782607	2.835538752362949e-05	0	0	0	0	0	0	1	-89.9	89.9;
	592	594	0.015879017013232515	0.005671077504725897	0	0	0	0	0	0	1	-89.9	89.9;
	594	595	0.047637051039697544	0.017013232514177693	0	0	0	0	0	0	1	-89.9	89.9;
	595	596	0.09527410207939509	0.034026465028355386	0	0	0	0	0	0	1	-89.9	89.9;
	596	597	0.023818525519848772	0.008506616257088847	0	0	0	0	0	0	1	-89.9	89.9;
	597	598	0.043649338374291115	0.01606805293005671	0	0	0	0	0	0	1	-89.9	89.9;
	598	599	0.008729867674858222	0.0032136105860113423	0	0	0	0	0	0	1	-89.9	89.9;
	599	600	0.00021739130434782607	2.835538752362949e-05	0	0	0	0	0	0	1	-89.9	89.9;
	598	601	0.04801427221172022	0.01767485822306238	0	0	0	0	0	0	1	-89.9	89.9;
	601	602	0.05160680529300567	0.018431001890359167	0	0	0	0	0	0	1	-89.9	89.9;
	602	603	0.00021739130434782607	2.835538752362949e-05	0	0	0	0	0	0	1	-89.9	89.9;
	594	604	0.5663516068052931	0.023818525519848772	0	0	0	0	0	0	1	-89.9	89.9;
	604	605	0.00021739130434782607	2.835538752362949e-05	0	0	0	0	0	0	1	-89.9	89.9;
	604	606	0.011909262759924386	0.004536862003780718	0	0	0	0	0	0	1	-89.9	89.9;
	604	607	0.011909262759924386	0.004536862003780718	0	0	0	0	0	0	1	-89.9	89.9;
	590	608	0.0277882797731569	0.00992438563327032	0	0	0	0	0	0	1	-89.9	89.9;
	608	609	0.00021739130434782607	2.835538752362949e-05	0	0	0	0	0	0	1	-89.9	89.9;
	546	610	0.12136105860113422	0.005103969754253308	0	0	0	0	0	0	1	-89.9	89.9;
	610	611	0.00021739130434782607	2.835538752362949e-05	0	0	0	0	0	0	1	-89.9	89.9;
	3162	3163	0.5886113279773156	0.21667769376181473	0	0	0	0	0	0	1	-89.9	89.9;
	3163	3164	0.013094801512287334	0.0048204158790170135	0	0	0	0	0	0	1	-89.9	89.9;
	3164	3165	0.00021739130434782607	2.835538752362949e-05	0	0	0	0	0	0	1	-89.9	89.9;
	3164	3166	0.16586748582230623	0.061058601134215504	0	0	0	0	0	0	1	-89.9	89.9;
	3166	3167	0.32930056710775046	0.02383742911153119	0	0	0	0	0	0	1	-89.9	89.9;
	3167	3168	0.00021739130434782607	2.835538752362949e-05	0	0	0	0	0	0	1	-89.9	89.9;
	3167	3169	0.04366729678638941	0.0166351606805293	0	0	0	0	0	0	1	-89.9	89.9;
	3169	3170	0.00021739130434782607	2.835538752362949e-05	0	0	0	0	0	0	1	-89.9	89.9;
	3167	3171	0.01984877126654064	0.007561436672967864	0	0	0	0	0	0	1	-89.9	89.9;
	3171	3172	0.00021739130434782607	2.835538752362949e-05	0	0	0	0	0	0	1	-89.9	89.9;
	3171	3173	0.03572778827977315	0.013610586011342154	0	0	0	0	0	0	1	-89.9	89.9;
	3173	3174	0.00021739130434782607	2.835538752362949e-05	0	0	0	0	0	0	1	-89.9	89.9;
	3166	3175	0.03491947069943289	0.01285444234404537	0	0	0	0	0	0	1	-89.9	89.9;
	3175	3176	0.00021739130434782607	2.835538752362949e-05	0	0	0	0	0	0	1	-89.9	89.9;
	3175	3177	0.039284404536862	0.014461247637051039	0	0	0	0	0	0	1	-89.9	89.9;
	3177	3178	0.061109073724007555	0.022495274102079396	0	0	0	0	0	0	1	-89.9	89.9;
	3178	3179	0.8692591304347825	0.1125141776937618	0	0	0	0	0	0	1	-89.9	89.9;
	3179	3180	0.6383621739130435	0.08262759924385632	0	0	0	0	0	0	1	-89.9	89.9;
	3180	3181	0.651944347826087	0.08438563327032136	0	0	0	0	0	0	1	-89.9	89.9;
	3181	3182	1.779962192816635	0.07485822306238185	0	0	0	0	0	0	1	-89.9	89.9;
	3182	3183	0.00021739130434782607	2.835538752362949e-05	0	0	0	0	0	0	1	-89.9	89.9;
	3181	3184	0.28317580340264653	0.011909262759924386	0	0	0	0	0	0	1	-89.9	89.9;
	3184	3185	0.00021739130434782607	2.835538752362949e-05	0	0	0	0	0	0	1	-89.9	89.9;
	3179	3186	0.21833648393194705	0.0831758034026465	0	0	0	0	0	0	1	-89.9	89.9;
	3186	3187	0.015879017013232515	0.0060491493383742915	0	0	0	0	0	0	1	-89.9	89.9;
	3187	3188	0.015879017013232515	0.0060491493383742915	0	0	0	0	0	0	1	-89.9	89.9;
	3188	3189	0.00021739130434782607	2.835538752362949e-05	0	0	0	0	0	0	1	-89.9	89.9;
	3179	3190	1.241209829867675	0.08984877126654064	0	0	0	0	0	0	1	-89.9	89.9;
	3190	3191	0.15198487712665407	0.011001890359168242	0	0	0	0	0	0	1	-89.9	89.9;
	3191	3192	0.00021739130434782607	2.835538752362949e-05	0	0	0	0	0	0	1	-89.9	89.9;
	3178	3193	0.015879017013232515	0.0060491493383742915	0	0	0	0	0	0	1	-89.9	89.9;
	3193	3194	0.00021739130434782607	2.835538752362949e-05	0	0	0	0	0	0	1	-89.9	89.9;
	3178	3195	0.09166361058601134	0.033742911153119094	0	0	0	0	0	0	1	-89.9	89.9;
	3195	3196	0.09602854442344044	0.03534971644612476	0	0	0	0	0	0	1	-89.9	89.9;
	3196	3197	0.00021739130434782607	2.835538752362949e-05	0	0	0	0	0	0	1	-89.9	89.9;
	3196	3198	0.023832538752362947	0.008773156899810964	0	0	0	0	0	0	1	-89.9	89.9;
	3198	3199	0.00021739130434782607	2.835538752362949e-05	0	0	0	0	0	0	1	-89.9	89.9;
	3198	3200	0.021824669187145557	0.008034026465028356	0	0	0	0	0	0	1	-89.9	89.9;
	3200	3201	0.1765682608695652	0.022854442344045368	0	0	0	0	0	0	1	-89.9	89.9;
	3201	3202	0.00021739130434782607	2.835538752362949e-05	0	0	0	0	0	0	1	-89.9	89.9;
	3200	3203	0.04801427221172022	0.01767485822306238	0	0	0	0	0	0	1	-89.9	89.9;
	3203	3204	0.00021739130434782607	2.835538752362949e-05	0	0	0	0	0	0	1	-89.9	89.9;
	3203	3205	0.09698882986767486	0.03570321361058601	0	0	0	0	0	0	1	-89.9	89.9;
	3205	3206	0.00021739130434782607	2.835538752362949e-05	0	0	0	0	0	0	1	-89.9	89.9;
	3205	3207	0.061109073724007555	0.022495274102079396	0	0	0	0	0	0	1	-89.9	89.9;
	3207	3208	0.00021739130434782607	2.835538752362949e-05	0	0	0	0	0	0	1	-89.9	89.9;
	3207	3209	0.046879389413988656	0.017257088846880906	0	0	0	0	0	0	1	-89.9	89.9;
	3209	3210	0.00021739130434782607	2.835538752362949e-05	0	0	0	0	0	0	1	-89.9	89.9;
	3209	3211	0.022786389413988656	0.008680529300567109	0	0	0	0	0	0	1	-89.9	89.9;
	3209	3212	0.03525141776937618	0.013429111531190927	0	0	0	0	0	0	1	-89.9	89.9;
	3212	3213	0.00021739130434782607	2.835538752362949e-05	0	0	0	0	0	0	1	-89.9	89.9;
	3209	3214	0.17459735349716446	0.06427221172022685	0	0	0	0	0	0	1	-89.9	89.9;
	3214	3215	0.00021739130434782607	2.835538752362949e-05	0	0	0	0	0	0	1	-89.9	89.9;
	3214	3216	2.9175992438563325	0.022103024574669186	0	0	0	0	0	0	1	-89.9	89.9;
	3216	3217	0.00021739130434782607	2.835538752362949e-05	0	0	0	0	0	0	1	-89.9	89.9;
	3214	3218	0.004364933837429111	0.0016068052930056712	0	0	0	0	0	0	1	-89.9	89.9;
	3218	3219	0.030554536862003778	0.011247637051039698	0	0	0	0	0	0	1	-89.9	89.9;
	3219	3220	0.22797731568998109	0.016502835538752363	0	0	0	0	0	0	1	-89.9	89.9;
	3220	3221	0.05066162570888469	0.0036672967863894137	0	0	0	0	0	0	1	-89.9	89.9;
	3221	3222	0.00021739130434782607	2.835538752362949e-05	0	0	0	0	0	0	1	-89.9	89.9;
	3220	3223	0.07599243856332703	0.005500945179584121	0	0	0	0	0	0	1	-89.9	89.9;
	3223	3224	0.00021739130434782607	2.835538752362949e-05	0	0	0	0	0	0	1	-89.9	89.9;
	3219	3225	0.027935576559546316	0.010283553875236296	0	0	0	0	0	0	1	-89.9	89.9;
	3225	3226	0.00021739130434782607	2.835538752362949e-05	0	0	0	0	0	0	1	-89.9	89.9;
	3225	3227	0.03631624952741021	0.013368620037807182	0	0	0	0	0	0	1	-89.9	89.9;
	3227	3228	0.00021739130434782607	2.835538752362949e-05	0	0	0	0	0	0	1	-89.9	89.9;
	3227	3229	0.030554536862003778	0.011247637051039698	0	0	0	0	0	0	1	-89.9	89.9;
	3229	3230	0.00021739130434782607	2.835538752362949e-05	0	0	0	0	0	0	1	-89.9	89.9;
	3229	3231	0.03491947069943289	0.01285444234404537	0	0	0	0	0	0	1	-89.9	89.9;
	3231	3232	0.07599243856332703	0.005500945179584121	0	0	0	0	0	0	1	-89.9	89.9;
	3232	3233	0.00021739130434782607	2.835538752362949e-05	0	0	0	0	0	0	1	-89.9	89.9;
	3231	3234	0.013094801512287334	0.0048204158790170135	0	0	0	0	0	0	1	-89.9	89.9;
	3234	3235	0.07458540642722117	0.018506616257088843	0	0	0	0	0	0	1	-89.9	89.9;
	3235	3236	0.00021739130434782607	2.835538752362949e-05	0	0	0	0	0	0	1	-89.9	89.9;
	3234	3237	0.039284404536862	0.014461247637051039	0	0	0	0	0	0	1	-89.9	89.9;
	3237	3238	0.06983894139886578	0.02570888468809074	0	0	0	0	0	0	1	-89.9	89.9;
	3238	3239	0.09602854442344044	0.03534971644612476	0	0	0	0	0	0	1	-89.9	89.9;
	3239	3240	0.13094801512287335	0.048204158790170135	0	0	0	0	0	0	1	-89.9	89.9;
	3234	3241	0.05674413988657845	0.020888468809073725	0	0	0	0	0	0	1	-89.9	89.9;
	3241	3242	0.1358217391304348	0.017580340264650284	0	0	0	0	0	0	1	-89.9	89.9;
	3242	3243	0.00021739130434782607	2.835538752362949e-05	0	0	0	0	0	0	1	-89.9	89.9;
	3218	3244	0.052379206049149335	0.019281663516068054	0	0	0	0	0	0	1	-89.9	89.9;
	3244	3245	0.00021739130434782607	2.835538752362949e-05	0	0	0	0	0	0	1	-89.9	89.9;
	3244	3246	0.02814555765595463	0.010722117202268431	0	0	0	0	0	0	1	-89.9	89.9;
	3244	3247	0.026756143667296787	0.01019281663516068	0	0	0	0	0	0	1	-89.9	89.9;
	3247	3248	0.00021739130434782607	2.835538752362949e-05	0	0	0	0	0	0	1	-89.9	89.9;
	3244	3249	0.039284404536862	0.014461247637051039	0	0	0	0	0	0	1	-89.9	89.9;
	3249	3250	0.00021739130434782607	2.835538752362949e-05	0	0	0	0	0	0	1	-89.9	89.9;
	3249	3251	0.043649338374291115	0.01606805293005671	0	0	0	0	0	0	1	-89.9	89.9;
	3251	3252	0.00021739130434782607	2.835538752362949e-05	0	0	0	0	0	0	1	-89.9	89.9;
	3251	3253	0.030554536862003778	0.011247637051039698	0	0	0	0	0	0	1	-89.9	89.9;
	3177	3254	0.24447913043478262	0.03164461247637051	0	0	0	0	0	0	1	-89.9	89.9;
	3254	3255	0.8090737240075615	0.034026465028355386	0	0	0	0	0	0	1	-89.9	89.9;
	3255	3256	0.00021739130434782607	2.835538752362949e-05	0	0	0	0	0	0	1	-89.9	89.9;
	3255	3257	0.03001134215500945	0.01143289224952741	0	0	0	0	0	0	1	-89.9	89.9;
	3257	3258	0.00021739130434782607	2.835538752362949e-05	0	0	0	0	0	0	1	-89.9	89.9;
	3255	3259	0.025366729678638938	0.009663516068052928	0	0	0	0	0	0	1	-89.9	89.9;
	3255	3260	0.6877126654064273	0.02892249527410208	0	0	0	0	0	0	1	-89.9	89.9;
	3260	3261	0.00021739130434782607	2.835538752362949e-05	0	0	0	0	0	0	1	-89.9	89.9;
	3260	3262	0.015879017013232515	0.0060491493383742915	0	0	0	0	0	0	1	-89.9	89.9;
	3260	3263	0.0277882797731569	0.01058601134215501	0	0	0	0	0	0	1	-89.9	89.9;
	3263	3264	0.00021739130434782607	2.835538752362949e-05	0	0	0	0	0	0	1	-89.9	89.9;
	3705	3706	0.1111531190926276	0.03969754253308128	0	0	0	0	0	0	1	-89.9	89.9;
	3706	3707	0.5258979206049149	0.022117202268431	0	0	0	0	0	0	1	-89.9	89.9;
	3707	3708	0.00021739130434782607	2.835538752362949e-05	0	0	0	0	0	0	1	-89.9	89.9;
	3706	3709	0.13094801512287335	0.048204158790170135	0	0	0	0	0	0	1	-89.9	89.9;
	3709	3710	0.21388175803402645	0.07873345935727788	0	0	0	0	0	0	1	-89.9	89.9;
	3710	3711	0.043649338374291115	0.01606805293005671	0	0	0	0	0	0	1	-89.9	89.9;
	3711	3712	0.00021739130434782607	2.835538752362949e-05	0	0	0	0	0	0	1	-89.9	89.9;
	3711	3713	0.026189603024574667	0.009640831758034027	0	0	0	0	0	0	1	-89.9	89.9;
	3713	3714	0.024356330812854442	0.008965973534971645	0	0	0	0	0	0	1	-89.9	89.9;
	3714	3715	0.033834652551984874	0.008395274102079393	0	0	0	0	0	0	1	-89.9	89.9;
	3715	3716	0.00021739130434782607	2.835538752362949e-05	0	0	0	0	0	0	1	-89.9	89.9;
	3714	3717	0.06464467013232514	0.02379678638941399	0	0	0	0	0	0	1	-89.9	89.9;
	3717	3718	0.020646137051039695	0.007600189035916824	0	0	0	0	0	0	1	-89.9	89.9;
	3718	3719	0.018289072778827978	0.006732514177693763	0	0	0	0	0	0	1	-89.9	89.9;
	3719	3720	0.013582173913043477	0.0017580340264650282	0	0	0	0	0	0	1	-89.9	89.9;
	3720	3721	0.00021739130434782607	2.835538752362949e-05	0	0	0	0	0	0	1	-89.9	89.9;
	3719	3722	0.06983894139886578	0.02570888468809074	0	0	0	0	0	0	1	-89.9	89.9;
	3722	3723	0.00021739130434782607	2.835538752362949e-05	0	0	0	0	0	0	1	-89.9	89.9;
	3722	3724	0.004364933837429111	0.0016068052930056712	0	0	0	0	0	0	1	-89.9	89.9;
	3724	3725	0.12136105860113422	0.005103969754253308	0	0	0	0	0	0	1	-89.9	89.9;
	3725	3726	0.00021739130434782607	2.835538752362949e-05	0	0	0	0	0	0	1	-89.9	89.9;
	3724	3727	0.11785321361058601	0.04338374291115312	0	0	0	0	0	0	1	-89.9	89.9;
	3727	3728	0.00021739130434782607	2.835538752362949e-05	0	0	0	0	0	0	1	-89.9	89.9;
	3727	3729	0.029987095463137995	0.011038752362948961	0	0	0	0	0	0	1	-89.9	89.9;
	3729	3730	0.025330812854442344	0.0018336483931947068	0	0	0	0	0	0	1	-89.9	89.9;
	3729	3731	0.24272211720226844	0.010207939508506616	0	0	0	0	0	0	1	-89.9	89.9;
	3731	3732	0.4854442344045369	0.020415879017013232	0	0	0	0	0	0	1	-89.9	89.9;
	3732	3733	0.00021739130434782607	2.835538752362949e-05	0	0	0	0	0	0	1	-89.9	89.9;
	3724	3734	0.09166361058601134	0.033742911153119094	0	0	0	0	0	0	1	-89.9	89.9;
	3734	3735	0.06780491493383743	0.016824196597353496	0	0	0	0	0	0	1	-89.9	89.9;
	3735	3736	0.00021739130434782607	2.835538752362949e-05	0	0	0	0	0	0	1	-89.9	89.9;
	3735	3737	0.08136589792060492	0.020189035916824194	0	0	0	0	0	0	1	-89.9	89.9;
	3737	3738	0.00021739130434782607	2.835538752362949e-05	0	0	0	0	0	0	1	-89.9	89.9;
	3737	3739	0.1765682608695652	0.022854442344045368	0	0	0	0	0	0	1	-89.9	89.9;
	3739	3740	0.027121965973534973	0.006729678638941398	0	0	0	0	0	0	1	-89.9	89.9;
	3740	3741	0.013560982986767486	0.003364839319470699	0	0	0	0	0	0	1	-89.9	89.9;
	3741	3742	0.00021739130434782607	2.835538752362949e-05	0	0	0	0	0	0	1	-89.9	89.9;
	3734	3743	0.043649338374291115	0.01606805293005671	0	0	0	0	0	0	1	-89.9	89.9;
	3743	3744	0.00021739130434782607	2.835538752362949e-05	0	0	0	0	0	0	1	-89.9	89.9;
	3743	3745	0.039284404536862	0.014461247637051039	0	0	0	0	0	0	1	-89.9	89.9;
	3745	3746	0.00021739130434782607	2.835538752362949e-05	0	0	0	0	0	0	1	-89.9	89.9;
	3745	3747	0.04801427221172022	0.01767485822306238	0	0	0	0	0	0	1	-89.9	89.9;
	3747	3748	0.00021739130434782607	2.835538752362949e-05	0	0	0	0	0	0	1	-89.9	89.9;
	3747	3749	0.10475841209829867	0.03856332703213611	0	0	0	0	0	0	1	-89.9	89.9;
	3749	3750	0.00021739130434782607	2.835538752362949e-05	0	0	0	0	0	0	1	-89.9	89.9;
	3749	3751	0.043649338374291115	0.01606805293005671	0	0	0	0	0	0	1	-89.9	89.9;
	3749	3752	0.05545746691871455	0.02112665406427221	0	0	0	0	0	0	1	-89.9	89.9;
	3752	3753	0.00021739130434782607	2.835538752362949e-05	0	0	0	0	0	0	1	-89.9	89.9;
	581	3751	0.0001890359168241966	1.8903591682419658e-05	0	0	0	0	0	0	1	-89.9	89.9;
	3253	587	0.0001890359168241966	1.8903591682419658e-05	0	0	0	0	0	0	1	-89.9	89.9;
	404	578	0.0001890359168241966	1.8903591682419658e-05	0	0	0	0	0	0	1	-89.9	89.9;
	2655	3240	0.0001890359168241966	1.8903591682419658e-05	0	0	0	0	0	0	1	-89.9	89.9;
];

% adds current ratings, is_switch boolean, and default switch state to the branch matrix
%column_names%	c_rating_a	is_switch	z_branch_start	branch_id
mpc.branch_extensions = [
	0.046000000000000006	1	1	319;
	0.07015	0	1	320;
	0.07015	0	1	321;
	0.07015	0	1	322;
	0.07015	0	1	323;
	0.07015	0	1	324;
	0.07015	0	1	325;
	0.023000000000000003	0	1	326;
	0.0276	0	1	327;
	0.07015	0	1	328;
	0.023000000000000003	0	1	329;
	0.0276	0	1	330;
	0.023000000000000003	0	1	331;
	0.0276	0	1	332;
	0.07015	0	1	333;
	0.07015	0	1	334;
	0.023000000000000003	0	1	335;
	0.0276	0	1	336;
	0.023000000000000003	0	1	337;
	0.0276	0	1	338;
	0.023000000000000003	0	1	339;
	0.0276	0	1	340;
	0.023000000000000003	0	1	341;
	0.0276	0	1	342;
	0.07015	0	1	343;
	0.07015	0	1	344;
	0.023000000000000003	0	1	345;
	0.0276	0	1	346;
	0.07015	0	1	347;
	0.023000000000000003	0	1	348;
	0.0276	0	1	349;
	0.023000000000000003	0	1	350;
	0.0276	0	1	351;
	0.07015	0	1	352;
	0.023000000000000003	0	1	353;
	0.0276	0	1	354;
	0.0529	0	1	355;
	0.0276	0	1	356;
	0.07015	0	1	357;
	0.07015	0	1	358;
	0.07015	0	1	359;
	0.07015	0	1	360;
	0.0529	0	1	361;
	0.0276	0	1	362;
	0.0529	0	1	363;
	0.0276	0	1	364;
	0.07015	0	1	365;
	0.0276	0	1	366;
	0.07015	0	1	367;
	0.023000000000000003	0	1	368;
	0.0276	0	1	369;
	0.07015	0	1	370;
	0.023000000000000003	0	1	371;
	0.0276	0	1	372;
	0.023000000000000003	0	1	373;
	0.0276	0	1	374;
	0.023000000000000003	0	1	375;
	0.0276	0	1	376;
	0.07015	0	1	377;
	0.023000000000000003	0	1	378;
	0.0276	0	1	379;
	0.023000000000000003	0	1	380;
	0.0276	0	1	381;
	0.046000000000000006	0	1	382;
	0.0276	0	1	383;
	0.046000000000000006	0	1	384;
	0.046000000000000006	0	1	385;
	0.0276	0	1	386;
	0.023000000000000003	0	1	387;
	0.0276	0	1	388;
	0.023000000000000003	0	1	389;
	0.0276	0	1	390;
	0.023000000000000003	0	1	391;
	0.0276	0	1	392;
	0.046000000000000006	0	1	393;
	0.0276	0	1	394;
	0.046000000000000006	0	1	395;
	0.046000000000000006	0	1	396;
	0.046000000000000006	0	1	397;
	0.0276	0	1	398;
	0.046000000000000006	0	1	399;
	0.0276	0	1	400;
	0.07015	0	1	401;
	0.07015	0	1	402;
	0.023000000000000003	0	1	403;
	0.0276	0	1	404;
	0.046000000000000006	0	1	405;
	0.046000000000000006	0	1	406;
	0.046000000000000006	0	1	407;
	0.0276	0	1	408;
	0.046000000000000006	0	1	409;
	0.046000000000000006	0	1	410;
	0.0276	0	1	411;
	0.046000000000000006	0	1	412;
	0.023000000000000003	0	1	413;
	0.0276	0	1	414;
	0.023000000000000003	0	1	415;
	0.0276	0	1	416;
	0.046000000000000006	0	1	417;
	0.0276	0	1	418;
	0.07015	0	1	419;
	0.0276	0	1	420;
	0.0529	0	1	421;
	0.0276	0	1	422;
	0.07015	0	1	423;
	0.07015	0	1	424;
	0.07015	0	1	425;
	0.07015	0	1	426;
	0.07015	0	1	427;
	0.07015	0	1	428;
	0.023000000000000003	0	1	429;
	0.0276	0	1	430;
	0.046000000000000006	0	1	431;
	0.0276	0	1	432;
	0.07015	0	1	433;
	0.023000000000000003	0	1	434;
	0.0276	0	1	435;
	0.046000000000000006	0	1	436;
	0.046000000000000006	0	1	437;
	0.0276	0	1	438;
	0.023000000000000003	0	1	439;
	0.0276	0	1	440;
	0.0529	0	1	441;
	0.0276	0	1	442;
	0.023000000000000003	0	1	443;
	0.0276	0	1	444;
	0.023000000000000003	0	1	445;
	0.0276	0	1	446;
	0.023000000000000003	0	1	447;
	0.0276	0	1	448;
	0.046000000000000006	1	1	511;
	0.07015	0	1	512;
	0.07015	0	1	513;
	0.07015	0	1	514;
	0.0276	0	1	515;
	0.07015	0	1	516;
	0.07015	0	1	517;
	0.07015	0	1	518;
	0.0276	0	1	519;
	0.07015	0	1	520;
	0.07015	0	1	521;
	0.0276	0	1	522;
	0.07015	0	1	523;
	0.0276	0	1	524;
	0.07015	0	1	525;
	0.0276	0	1	526;
	0.07015	0	1	527;
	0.0276	0	1	528;
	0.07015	0	1	529;
	0.0276	0	1	530;
	0.07015	0	1	531;
	0.07015	0	1	532;
	0.0276	0	1	533;
	0.023000000000000003	0	1	534;
	0.07015	0	1	535;
	0.0276	0	1	536;
	0.07015	0	1	537;
	0.0276	0	1	538;
	0.07015	0	1	539;
	0.0276	0	1	540;
	0.07015	0	1	541;
	0.07015	0	1	542;
	0.0276	0	1	543;
	0.07015	0	1	544;
	0.07015	0	1	545;
	0.046000000000000006	0	1	546;
	0.0276	0	1	547;
	0.07015	0	1	548;
	0.07015	0	1	549;
	0.07015	0	1	550;
	0.07015	0	1	551;
	0.07015	0	1	552;
	0.023000000000000003	0	1	553;
	0.0276	0	1	554;
	0.07015	0	1	555;
	0.0276	0	1	556;
	0.07015	0	1	557;
	0.01725	0	1	558;
	0.0276	0	1	559;
	0.023000000000000003	0	1	560;
	0.046000000000000006	0	1	561;
	0.046000000000000006	0	1	562;
	0.0276	0	1	563;
	0.046000000000000006	0	1	564;
	0.046000000000000006	0	1	565;
	0.046000000000000006	0	1	566;
	0.046000000000000006	0	1	567;
	0.07015	0	1	568;
	0.07015	0	1	569;
	0.0276	0	1	570;
	0.07015	0	1	571;
	0.046000000000000006	0	1	572;
	0.0276	0	1	573;
	0.01725	0	1	574;
	0.0276	0	1	575;
	0.046000000000000006	0	1	576;
	0.046000000000000006	0	1	577;
	0.046000000000000006	0	1	578;
	0.0276	0	1	579;
	0.01725	0	1	580;
	0.0276	0	1	581;
	0.07015	1	1	2950;
	0.07015	0	1	2951;
	0.0276	0	1	2952;
	0.07015	0	1	2953;
	0.023000000000000003	0	1	2954;
	0.0276	0	1	2955;
	0.046000000000000006	0	1	2956;
	0.0276	0	1	2957;
	0.046000000000000006	0	1	2958;
	0.0276	0	1	2959;
	0.046000000000000006	0	1	2960;
	0.0276	0	1	2961;
	0.07015	0	1	2962;
	0.0276	0	1	2963;
	0.07015	0	1	2964;
	0.07015	0	1	2965;
	0.0345	0	1	2966;
	0.0345	0	1	2967;
	0.0345	0	1	2968;
	0.01725	0	1	2969;
	0.0276	0	1	2970;
	0.023000000000000003	0	1	2971;
	0.0276	0	1	2972;
	0.046000000000000006	0	1	2973;
	0.046000000000000006	0	1	2974;
	0.046000000000000006	0	1	2975;
	0.0276	0	1	2976;
	0.023000000000000003	0	1	2977;
	0.023000000000000003	0	1	2978;
	0.0276	0	1	2979;
	0.046000000000000006	0	1	2980;
	0.0276	0	1	2981;
	0.07015	0	1	2982;
	0.07015	0	1	2983;
	0.0276	0	1	2984;
	0.07015	0	1	2985;
	0.0276	0	1	2986;
	0.07015	0	1	2987;
	0.0345	0	1	2988;
	0.0276	0	1	2989;
	0.07015	0	1	2990;
	0.0276	0	1	2991;
	0.07015	0	1	2992;
	0.0276	0	1	2993;
	0.07015	0	1	2994;
	0.0276	0	1	2995;
	0.07015	0	1	2996;
	0.0276	0	1	2997;
	0.046000000000000006	0	1	2998;
	0.046000000000000006	0	1	2999;
	0.0276	0	1	3000;
	0.07015	0	1	3001;
	0.0276	0	1	3002;
	0.0092	0	1	3003;
	0.0276	0	1	3004;
	0.07015	0	1	3005;
	0.07015	0	1	3006;
	0.023000000000000003	0	1	3007;
	0.023000000000000003	0	1	3008;
	0.0276	0	1	3009;
	0.023000000000000003	0	1	3010;
	0.0276	0	1	3011;
	0.07015	0	1	3012;
	0.0276	0	1	3013;
	0.07015	0	1	3014;
	0.0276	0	1	3015;
	0.07015	0	1	3016;
	0.0276	0	1	3017;
	0.07015	0	1	3018;
	0.023000000000000003	0	1	3019;
	0.0276	0	1	3020;
	0.07015	0	1	3021;
	0.0529	0	1	3022;
	0.0276	0	1	3023;
	0.07015	0	1	3024;
	0.07015	0	1	3025;
	0.07015	0	1	3026;
	0.07015	0	1	3027;
	0.07015	0	1	3028;
	0.0345	0	1	3029;
	0.0276	0	1	3030;
	0.07015	0	1	3031;
	0.0276	0	1	3032;
	0.046000000000000006	0	1	3033;
	0.046000000000000006	0	1	3034;
	0.0276	0	1	3035;
	0.07015	0	1	3036;
	0.0276	0	1	3037;
	0.07015	0	1	3038;
	0.0276	0	1	3039;
	0.07015	0	1	3040;
	0.0345	0	1	3041;
	0.023000000000000003	0	1	3042;
	0.0276	0	1	3043;
	0.046000000000000006	0	1	3044;
	0.0276	0	1	3045;
	0.046000000000000006	0	1	3046;
	0.023000000000000003	0	1	3047;
	0.0276	0	1	3048;
	0.046000000000000006	0	1	3049;
	0.046000000000000006	0	1	3050;
	0.0276	0	1	3051;
	0.046000000000000006	1	1	3456;
	0.01725	0	1	3457;
	0.0276	0	1	3458;
	0.07015	0	1	3459;
	0.07015	0	1	3460;
	0.07015	0	1	3461;
	0.0276	0	1	3462;
	0.07015	0	1	3463;
	0.07015	0	1	3464;
	0.0529	0	1	3465;
	0.0276	0	1	3466;
	0.07015	0	1	3467;
	0.07015	0	1	3468;
	0.07015	0	1	3469;
	0.0345	0	1	3470;
	0.0276	0	1	3471;
	0.07015	0	1	3472;
	0.0276	0	1	3473;
	0.07015	0	1	3474;
	0.01725	0	1	3475;
	0.0276	0	1	3476;
	0.07015	0	1	3477;
	0.0276	0	1	3478;
	0.07015	0	1	3479;
	0.023000000000000003	0	1	3480;
	0.01725	0	1	3481;
	0.01725	0	1	3482;
	0.0276	0	1	3483;
	0.07015	0	1	3484;
	0.0529	0	1	3485;
	0.0276	0	1	3486;
	0.0529	0	1	3487;
	0.0276	0	1	3488;
	0.0345	0	1	3489;
	0.0529	0	1	3490;
	0.0529	0	1	3491;
	0.0276	0	1	3492;
	0.07015	0	1	3493;
	0.0276	0	1	3494;
	0.07015	0	1	3495;
	0.0276	0	1	3496;
	0.07015	0	1	3497;
	0.0276	0	1	3498;
	0.07015	0	1	3499;
	0.0276	0	1	3500;
	0.07015	0	1	3501;
	0.046000000000000006	0	1	3502;
	0.0276	0	1	3503;
	2.3000000000000003	1	0	3584;
	2.3000000000000003	1	0	3600;
	2.3000000000000003	1	0	3603;
	2.3000000000000003	1	0	3658;
];